Circuit: * C:\Users\yzhe577\OneDrive - The University of Auckland\Desktop\Electeng-310-Team-13-main\Electeng-310-Team-13-main\Sim\20_04work.asc

Warning: Multiple definitions of model "2scr375p" Type: BJT
Warning: Multiple definitions of model "bc857b" Type: BJT
Warning: Multiple definitions of model "bc847c" Type: BJT
Warning: Multiple definitions of model "bc847b" Type: BJT
WARNING: Less than two connections to node V-.  This node is used by V2.
Early termination of direct N-R iteration.
Direct Newton iteration failed to find .op point.  (Use ".option noopiter" to skip.)
Starting Gmin stepping
Increasing initial diagonal Gmin to 100
Gmin = 100
vernier = 0.5
Gmin = 18.6414
vernier = 0.25
vernier = 0.125
vernier = 0.0625
vernier = 0.03125
Gmin = 19.4331
vernier = 0.015625
vernier = 0.0078125
vernier = 0.00390625
vernier = 0.00195313
Gmin = 19.5276
vernier = 0.000976563
vernier = 0.000488281
Gmin = 0
Gmin stepping failed

Starting source stepping with srcstepmethod=0
Source Step = 3.0303%
Source Step = 33.3333%
Source Step = 63.6364%
Source Step = 93.9394%
Source stepping succeeded in finding the operating point.


Date: Mon Apr 22 12:41:06 2024
Total elapsed time: 126.761 seconds.

tnom = 27
temp = 27
method = modified trap
totiter = 5619044
traniter = 5617194
tranpoints = 1710384
accept = 1187604
rejected = 522780
matrix size = 197
fillins = 2580
solver = Normal
Thread vector: 5.2/3.7[3] 1.8/1.3[3] 1.3/0.8[3] 1.0/2.4[1]  2592/500
Matrix Compiler1: 546.43 KB object code size  54.2/17.8/[10.4]
Matrix Compiler2: 58.68 KB object code size  4.3/2.7/[1.1]

