Circuit: * C:\Users\yzhe577\OneDrive - The University of Auckland\Desktop\Electeng-310-Team-13-main\Electeng-310-Team-13-main\Sim\LASTEST COPY FOR LTSPICE.asc

Warning: Multiple definitions of model "2scr375p" Type: BJT
Warning: Multiple definitions of model "bc857b" Type: BJT
Warning: Multiple definitions of model "bc847c" Type: BJT
Warning: Multiple definitions of model "bc847b" Type: BJT
WARNING: Less than two connections to node V-.  This node is used by V2.
Early termination of direct N-R iteration.
Direct Newton iteration failed to find .op point.  (Use ".option noopiter" to skip.)
Starting Gmin stepping
Increasing initial diagonal Gmin to 100
Gmin = 100
vernier = 0.5
Gmin = 18.6414
vernier = 0.25
vernier = 0.125
vernier = 0.0625
vernier = 0.03125
Gmin = 19.4331
vernier = 0.015625
vernier = 0.0078125
vernier = 0.00390625
vernier = 0.00195313
Gmin = 19.5276
vernier = 0.000976563
vernier = 0.000488281
Gmin = 0
Gmin stepping failed

Starting source stepping with srcstepmethod=0
Source Step = 3.0303%
Source Step = 33.3333%
Source Step = 63.6364%
Source Step = 93.9394%
Source stepping succeeded in finding the operating point.

Heightened Def Con from 0.119335 to 0.119335

Date: Sat Apr 20 16:45:27 2024
Total elapsed time: 88.281 seconds.

tnom = 27
temp = 27
method = modified trap
totiter = 3567634
traniter = 3565723
tranpoints = 861295
accept = 614768
rejected = 246528
matrix size = 197
fillins = 2753
solver = Normal
Thread vector: 5.0/3.8[4] 1.9/1.3[4] 2.1/1.3[2] 0.9/3.6[1]  2592/500
Matrix Compiler1: 623.74 KB object code size  61.7/20.5/[12.1]
Matrix Compiler2: 61.64 KB object code size  4.7/2.5/[1.0]

