Circuit: * C:\Users\timsc\OneDrive\Documents\310\310_circuits.asc

WARNING: Less than two connections to node v-.  This node is used by v2.
Early termination of direct N-R iteration.
Direct Newton iteration failed to find .op point.  (Use ".option noopiter" to skip.)
Starting Gmin stepping
Increasing initial diagonal Gmin to 100
Gmin = 100
vernier = 0.5
Gmin = 18.6414
vernier = 0.25
vernier = 0.125
vernier = 0.0625
vernier = 0.03125
Gmin = 19.4331
vernier = 0.015625
vernier = 0.0078125
vernier = 0.00390625
vernier = 0.00195312
Gmin = 19.5276
vernier = 0.000976562
vernier = 0.000488281
Gmin = 0
Gmin stepping failed

Starting source stepping with srcstepmethod=0
Source Step = 3.0303%
Source Step = 33.3333%
Source Step = 63.6364%
Source Step = 93.9394%
Source stepping succeeded in finding the operating point.


Date: Thu Mar 28 15:23:33 2024
Total elapsed time: 11.218 seconds.

tnom = 27
temp = 27
method = modified trap
totiter = 1395001
traniter = 1393214
tranpoints = 335037
accept = 239558
rejected = 95479
matrix size = 56
fillins = 274
solver = Normal
Avg thread counts: 1.0/1.0/1.0/1.0
Matrix Compiler1:    1356 opcodes  4.7/[1.9]/2.2
Matrix Compiler2: 9.06 KB object code size  0.7/0.6/[0.4]

